[TITLE]
;;Project Title/Notes
Copy© 2017, SwmmDataPreparationSystem(SDPS). All Rights Reserved.
INP file created on 2018/7/25 17:10:43

[OPTIONS]
;;Option             Value
FLOW_UNITS           LPS
INFILTRATION         HORTON
FLOW_ROUTING         DYNWAVE
LINK_OFFSETS         DEPTH
MIN_SLOPE            0
ALLOW_PONDING        YES
SKIP_STEADY_STATE    YES

IGNORE_RAINFALL      YES
IGNORE_ROUTING       YES
START_DATE           06/10/2017
START_TIME           00:00:00
REPORT_START_DATE    06/10/2017
REPORT_START_TIME    00:00:00
END_DATE             06/10/2017
END_TIME             03:00:00
SWEEP_START          01/01
SWEEP_END            12/31
DRY_DAYS             0
REPORT_STEP          288:01:00
WET_STEP             336:01:00
DRY_STEP             313:00:00
ROUTING_STEP         0:02:30 

INERTIAL_DAMPING     FULL
NORMAL_FLOW_LIMITED  BOTH
FORCE_MAIN_EQUATION  D-W
VARIABLE_STEP        0.00
LENGTHENING_STEP     0
MIN_SURFAREA         1.14
MAX_TRIALS           8
HEAD_TOLERANCE       0.0015
SYS_FLOW_TOL         5
LAT_FLOW_TOL         5

[EVAPORATION]
;;Evap Data      Parameters
;;-------------- ----------------
CONSTANT         0.0
DRY_ONLY         NO

[SUBCATCHMENTS]
;;Subcatchment   Rain Gage        Outlet           Area     %Imperv  Width    %Slope   CurbLen  Snow Pack       
;;-------------- ---------------- ---------------- -------- -------- -------- -------- -------- ----------------
sub323           rain             1Y4              2747.19853488 71.2090585245 52.4137246805 7.89479218517 272.754931604 0               
sub324           rain             1Y217            284.762498641 0        16.8749073669 7.56122792365 72.9865628742 0               
sub325           rain             1Y1              288.702630622 92.3430549467 16.9912515908 6.93781987772 74.833694691 0               
sub326           rain             1Y2              3390.73124307 99.8665621021 58.2299857725 5.87623333363 286.691085513 0               
sub327           rain             1Y215            184.555491252 0        13.5851202149 6.31678293791 57.1053379118 0               
sub328           rain             1Y6              410.990834296 93.3630412555 20.272908876 7.63097738296 119.400953228 0               
sub329           rain             B17              368.356153022 45.8187857329 19.1926067282 50.5229323835 164.753999621 0               
sub330           rain             1Y8              667.494153637 90.0545030832 25.8359082216 8.78063678631 103.446848588 0               
sub331           rain             1Y214            961.29119367 88.0083542693 31.0046963164 6.90713085373 128.686820355 0               
sub332           rain             1Y16             877.211959476 91.603350104 29.6177642552 13.6065241665 137.717450762 0               
sub333           rain             1Y213            437.351534561 68.2839317792 20.9129513594 9.17437339048 83.2522682185 0               
sub334           rain             1Y987            4805.65725365 97.2265541971 69.3228479915 4.32443332011 301.161686599 0               
sub335           rain             B16              1580.8581777 7.5838701154 39.7600072648 27.9148792646 224.680273444 0               
sub336           rain             1Y21             2124.44222571 70.1748436006 46.0916719778 6.9708091559 208.221440275 0               
sub337           rain             1Y208            369.629646191 73.4597780199 19.2257547626 9.00048963253 79.7971371634 0               
sub338           rain             1Y209            412.423232384 69.2423050907 20.3082060356 7.17568542218 85.365554093 0               
sub339           rain             1Y210            487.888386631 61.2772450118 22.08819564 11.5353660144 96.1431368126 0               
sub340           rain             1Y212            647.764601876 47.9770232899 25.4512200469 13.4136242262 117.307104495 0               
sub341           rain             1Y206            272.322096883 59.2044221127 16.5021846094 14.3096300294 68.0620593744 0               
sub342           rain             1Y24             1893.93299713 53.8803312362 43.5193404951 6.41494803335 207.755168477 0               
sub343           rain             1Y204            1357.60411019 65.0094832215 36.8456796679 12.4530613606 185.588920372 0               
sub344           rain             B14              5058.3680025 0.9251117278 71.1222047078 12.2559712756 323.057277203 0               
sub345           rain             1Y993            8969.29860133 91.7068453579 94.7063809958 1.72148267055 399.356869554 0               
sub346           rain             1Y203            1276.59855199 77.1633069877 35.7295193361 12.3447084962 180.184114828 0               
sub347           rain             B13              2286.92100528 1.0826961663 47.8217628834 11.5246244909 297.09527778 0               
sub348           rain             1Y30             2419.57732748 73.3919557846 49.189199297 7.5409966453 232.646367391 0               
sub349           rain             1Y202            1278.34359818 43.475176233 35.7539312269 11.5545329083 169.848869653 0               
sub350           rain             1Y33             1846.68102763 70.3810077854 42.973026745 5.53563972291 204.501870933 0               
sub351           rain             B12              3362.12884047 1.4374863358 57.9838670707 13.4981139261 342.406139273 0               
sub352           rain             1Y201            2528.32772993 90.9840565915 50.2824793534 6.18071714761 214.15919905 0               
sub353           rain             1Y39             3548.01673145 75.8729134022 59.565230894 4.17201173595 252.333658069 0               
sub354           rain             1Y1002           10835.8012353 97.816660277 104.095154716 1.59844554301 448.412027797 0               
sub355           rain             1Y199            277.83031447 66.2884972529 16.6682426929 12.5438729329 66.9912865545 0               
sub356           rain             B11              5946.85596611 17.0933749249 77.115860665 16.5973406027 389.386402621 0               
sub357           rain             1Y197            388.312094813 0        19.7056361179 9.97060117222 78.6421332633 0               
sub358           rain             1Y511            2221.63646607 85.6550956106 47.1342387874 7.45624192673 224.680105564 0               
sub359           rain             1Y43             822.564825603 43.3702080925 28.6803909597 5.06695513205 117.759046522 0               
sub360           rain             1Y508            1105.79331224 41.9020846037 33.2534706796 3.96518586792 172.510585697 0               
sub361           rain             1Y505            599.369672186 48.3554027332 24.4820275342 3.44683134265 102.564608774 0               
sub362           rain             1Y196            330.434553289 0        18.1778588753 17.5898545544 81.1534000845 0               
sub363           rain             1Y86             9357.67679702 14.3332529101 96.7350856568 6.51228096646 447.747444639 0               
sub364           rain             1Y195            385.1758426 0        19.6258972432 13.75796857 86.7688201807 0               
sub365           rain             1Y518            3380.09140189 91.0945648732 58.1385534898 7.35464640958 313.017371821 0               
sub366           rain             1Y95             1765.42669979 14.4335851017 42.0169810885 9.06512775868 199.202297774 0               
sub367           rain             B10              5093.48047905 1.0954410275 71.3686239117 14.4526968685 367.887865373 0               
sub368           rain             1Y193            750.426387801 99.9786602298 27.3939115097 11.1795972505 107.481077661 0               
sub369           rain             1Y93             1707.06359982 43.4696481652 41.3166261912 3.43941448401 191.346957032 0               
sub370           rain             1Y85             1586.40867125 33.3292433379 39.8297460606 3.11606973744 210.28630593 0               
sub371           rain             1Y74             2798.71498526 48.7209470502 52.9028825799 3.11808631615 240.038669589 0               
sub372           rain             1Y521            5120.34671839 77.1254767073 71.5565980074 7.79255434143 370.130867539 0               
sub373           rain             1Y65             3569.05445185 69.5474278795 59.7415638551 5.54799011736 267.101759545 0               
sub374           rain             1Y99             1850.7992139 18.7918358269 43.0209160049 10.4404371544 201.044373338 0               
sub375           rain             1Y191            433.496309942 56.8345404108 20.8205741982 13.8580846287 101.270510376 0               
sub376           rain             1Y189            380.720220963 62.4765335966 19.5120532226 7.18814071297 83.3093132258 0               
sub377           rain             1Y524            5788.52004118 71.7550243518 76.0823241047 8.38220048403 378.200102306 0               
sub378           rain             1Y187            312.921325283 71.7077648602 17.6895823943 13.6500529809 71.1867234743 0               
sub379           rain             1Y60             5086.3267996 79.3665311023 71.3184884837 4.77793510446 356.129623173 0               
sub380           rain             1Y46             6402.03756969 82.4461209915 80.0127337971 4.47384945079 387.167279632 0               
sub381           rain             1Y186            255.121378043 36.846856312 15.9725194645 7.72381383458 68.3470922454 0               
sub382           rain             1Y105            9457.51837614 75.4099262882 97.2497731418 4.66960430278 508.133727141 0               
sub383           rain             1Y185            826.11151172 50.3892575553 28.7421556554 8.4375158963 115.12994368 0               
sub384           rain             1Y531            224.187313056 48.0572062203 14.9728859294 13.3502393809 61.0548641837 0               
sub385           rain             1Y528            3334.01413961 51.4717896606 57.7409225732 7.55219051106 310.118664685 0               
sub386           rain             B9               12221.4893486 0.2333662365 110.550845083 14.8036413554 488.271219799 0               
sub387           rain             1Y184            312.739270204 60.0258709596 17.6844358181 16.5585486852 80.587226757 0               
sub388           rain             1Y679            1652.98550951 60.5849633027 40.6569244964 8.16269474288 173.433364863 0               
sub389           rain             1Y676            1598.41257829 58.9924172529 39.9801523045 8.3736750288 172.572602 0               
sub390           rain             1Y182            301.879201664 73.4992451323 17.3746712678 12.0020671001 70.6460756131 0               
sub391           rain             1Y532            3522.37689335 54.4596466594 59.349615781 3.91759540499 287.360799392 0               
sub392           rain             1Y181            159.246388333 51.5421696851 12.6192863639 11.5083330134 52.7668351513 0               
sub393           rain             1Y179            347.66018047 40.7206844981 18.6456477621 4.70850767881 73.4726606227 0               
sub394           rain             1Y177            474.946781682 39.436671312 21.7932737716 5.1671431529 83.3254458658 0               
sub395           rain             1Y174            416.887563683 61.8935846983 20.417824656 1.18278718949 88.4747931952 0               
sub396           rain             1Y171            471.724510048 62.4647319785 21.7192198306 2.54099894918 89.6906892665 0               
sub397           rain             1Y109            3556.49883722 14.7294368682 59.6363885327 7.82414346146 417.594245956 0               
sub398           rain             1Y135            7722.35381435 23.1350253953 87.8769242427 7.72137143254 583.468953173 0               
sub399           rain             1Y167            932.798907881 46.5725741592 30.541756791 2.14488254385 124.009676077 0               
sub400           rain             B8               7812.50922397 0.6228336983 88.388399827 18.6577371328 382.706269644 0               
sub401           rain             B7               3831.2731846 1.3759775062 61.8972792989 18.1448454049 361.615554726 0               
sub402           rain             B6               5392.12304789 0.7830615948 73.4310768537 16.2860988969 415.692585143 0               
sub403           rain             1Y144            3041.48718812 38.6346873124 55.1496798551 5.45596744785 269.722850249 0               
sub404           rain             1Y164            3679.07170803 83.036944233 60.6553518499 6.95064120774 250.276515462 0               
sub405           rain             1Y141            10553.1376491 22.6922306894 102.728465622 10.3845975839 524.881556099 0               
sub406           rain             1Y148            2948.17103718 67.5732839151 54.297062878 8.15547478007 400.107303202 0               
sub407           rain             B4               9038.99295315 1.1786342359 95.0736185971 14.4670523233 501.82607848 0               
sub408           rain             1Y158            709.352683922 45.8461073011 26.6336757494 5.4713255134 105.207145241 0               
sub409           rain             1Y155            760.276149002 48.9432644801 27.5731055379 3.65750494486 111.065281505 0               
sub410           rain             B1               957.99059906 3.2073103122 30.9514232154 12.3500834436 233.774591917 0               
sub411           rain             B2               2263.76459625 0.000394607 47.5790352598 15.0786299122 347.717714687 0               
sub412           rain             A2               4260.52416112 3.3883938657 65.2726907759 17.8979154429 277.107394485 0               
sub413           rain             1Y153            3537.3283545 9.9901670961 59.4754432896 9.14549635869 335.202097011 0               
sub414           rain             A3               4036.35092656 0.0001138772 63.5322825543 17.4058587708 267.03951897 0               
sub415           rain             A4               6277.41558393 3.9633126147 79.2301431523 15.7374227566 339.478946664 0               
sub416           rain             A1               16021.2217071 10.2454775179 126.574964772 9.16592310785 546.321435371 0               
sub0             rain             2Y709            1727.35688957 30.4417231505 41.5614832455 4.19699799372 177.821475251 0               
sub1             rain             2Y703            1371.6047318 31.8262421029 37.0351823514 3.28685753925 173.029845088 0               
sub2             rain             2Y700            2033.94693919 31.4060032634 45.0993008725 3.3527938109 191.652929924 0               
sub3             rain             5Y250            1503.39183727 84.8283605189 38.773597167 2.26076438196 175.04828802 0               
sub4             rain             2Y706            2634.34666164 59.1479576667 51.3258868568 2.86811449561 249.267912053 0               
sub5             rain             5Y1              2158.73941677 57.0382026758 46.462236459 2.15502857696 198.153684535 0               
sub6             rain             2Y712            2445.25003029 35.6129935315 49.4494694642 2.2851804779 248.582210582 0               
sub7             rain             5Y12             1150.61107994 41.8526758015 33.9206586012 1.94787977005 138.554630398 0               
sub8             rain             5Y8              1629.84099178 44.8973966056 40.3712892014 2.09515755968 165.742552098 0               
sub9             rain             5Y4              2422.55279482 57.463331478 49.2194351331 2.95801618797 204.752724192 0               
sub10            rain             5Y15             1016.45346908 53.524820865 31.8818674026 4.36826347907 130.486918151 0               
sub11            rain             5Y44             757.748880264 85.5418392056 27.5272388783 3.760378997 136.718349713 0               
sub12            rain             5Y246            4256.4064324 90.5468750391 65.241140643 5.81557050534 349.109044711 0               
sub13            rain             5Y46             1615.83047373 74.1201647517 40.1973938674 3.75982220715 210.347190019 0               
sub14            rain             5Y20             1815.50347738 64.6239341626 42.6087253668 3.30033433614 187.864774503 0               
sub15            rain             5Y18             2815.55253696 72.8650945816 53.0617803787 2.75815239291 221.017570142 0               
sub16            rain             5Y243            4494.8115533 86.9669234171 67.043355773 5.29461373795 371.741222598 0               
sub17            rain             5Y52             2367.80705093 68.5037289188 48.6601176625 4.99161858262 259.241203982 0               
sub18            rain             5Y33             1283.36071606 38.2930656913 35.8240242862 2.13571392094 154.677048816 0               
sub19            rain             2Y715            6596.26356361 32.9344839494 81.2173846144 2.30176215546 342.038556411 0               
sub20            rain             5Y36             1584.1448001 80.7339059716 39.8013165624 3.45462277214 164.124438953 0               
sub21            rain             3Y27             1041.43692249 49.4589143729 32.2713018406 2.43314103976 143.37373192 0               
sub22            rain             2Y726            1483.54989983 99.9661644086 38.5168781164 6.52594382455 160.796786604 0               
sub23            rain             7Y139            923.880693515 96.6298587911 30.3954057962 5.04526191052 122.84478575 0               
sub24            rain             5Y55             3483.44097462 67.1735381199 59.0206826004 3.04225653846 275.712205502 0               
sub25            rain             5Y240            6000.04929636 80.6376238358 77.4599851301 2.46320257891 397.015206671 0               
sub26            rain             2Y1568           1367.33966214 95.0420996154 36.9775561948 5.54308378078 157.426416859 0               
sub27            rain             2Y1265           1146.42176798 96.2852505118 33.8588506595 6.71530098126 139.66009109 0               
sub28            rain             7Y256            918.258489618 23.9838461192 30.3027802292 4.05920669221 131.156989086 0               
sub29            rain             2Y734            665.78974146 99.952495055 25.8029018031 7.92289052636 110.973993693 0               
sub30            rain             2Y724            1774.76677753 87.669335285 42.1279809335 4.60361547267 210.013864594 0               
sub31            rain             7Y138            754.748432946 45.7836992896 27.4726852154 3.69405336157 135.735968194 0               
sub32            rain             3Y24             1344.69497367 32.8707321397 36.6700828152 2.66855259896 181.044431009 0               
sub33            rain             7Y166            878.568065445 63.6019913819 29.6406488702 2.9489630683 188.202252513 0               
sub34            rain             5Y147            1609.24903505 28.864718304 40.1154463399 1.93733572418 176.739156593 0               
sub35            rain             2Y1285           946.619785703 71.3497297596 30.7671868344 2.70711566683 188.85147795 0               
sub36            rain             3Y18             1511.72751504 35.0734942265 38.8809402541 1.75154526136 159.130792991 0               
sub37            rain             2Y1239           1309.94153094 98.3281248118 36.1931144134 6.33990091779 157.96268723 0               
sub38            rain             2Y737            643.306487235 99.9850392728 25.3634872846 7.93614183258 108.257411115 0               
sub39            rain             2Y1263           1296.6054863 59.1953923946 36.0084085499 3.59283584097 210.841971311 0               
sub40            rain             2Y721            4867.88706921 91.9122005671 69.7702448699 3.94856011807 340.288206136 0               
sub41            rain             3Y15             1246.23711227 35.884533394 35.3020836817 1.56402915324 147.734282812 0               
sub42            rain             5Y234            2362.15110287 99.4451151086 48.6019660391 2.04180615313 250.49149313 0               
sub43            rain             2Y972            579.707331418 99.10903267 24.0771121902 9.44744239222 126.355684701 0               
sub44            rain             5Y60             3928.6708137 61.7958485041 62.6791098668 2.87200201365 292.77353995 0               
sub45            rain             5Y23             6400.1555879 36.3285149876 80.0009724185 2.64444181036 402.537739031 0               
sub46            rain             5Y237            6175.34793781 95.7628070586 78.5833820716 1.93114824211 408.911574288 0               
sub47            rain             7Y18             1008.67999446 71.6766279866 31.7597228335 2.73115212905 127.160239405 0               
sub48            rain             7Y21             970.297105534 78.4944911796 31.1495923815 1.54001412406 124.980891416 0               
sub49            rain             7Y177            449.275652685 81.3473246772 21.1961235297 2.10715266991 88.575726107 0               
sub50            rain             3Y12             1593.34768523 37.7504932777 39.916759453 2.10349071269 162.154639247 0               
sub51            rain             7Y1              711.061974496 36.446144316 26.6657453392 8.3728322743 109.197882674 0               
sub52            rain             7Y15             1428.63108001 64.195764091 37.797236407 4.1025215243 150.217812539 0               
sub53            rain             7Y180            109.413084465 0        10.4600709589 4.34132857258 44.5349252565 0               
sub54            rain             7Y77             211.138513696 65.8593967407 14.5306061022 1.25329996322 65.1445461764 0               
sub55            rain             5Y1017           174.057997013 81.6227108928 13.1931041462 2.32903702187 58.9528798961 0               
sub56            rain             2Y1647           1565.84596987 81.4394222341 39.5707716613 1.50701858173 161.932058757 0               
sub57            rain             2Y988            1504.53115932 64.8009070942 38.7882863674 2.82308368085 195.464382509 0               
sub58            rain             3Y1083           984.873619268 11.1884604906 31.3826961759 1.50720803711 128.807061733 0               
sub59            rain             2Y1287           635.325475104 74.7520717216 25.2056635521 2.00122738474 105.494800632 0               
sub60            rain             2Y718            7341.67987185 85.3618764056 85.6836032847 3.22951626191 440.387739176 0               
sub61            rain             5Y150            2272.40986614 30.7492067192 47.6698003577 1.50566431336 199.495644562 0               
sub62            rain             2Y1326           735.835816604 74.9463257202 27.1262938236 2.07965668546 111.475875821 0               
sub63            rain             2Y1323           994.774349623 70.2067817925 31.5400435894 1.44424465249 126.823904329 0               
sub64            rain             5Y232            2903.28836775 99.6272939549 53.8821711492 3.30297017871 274.965786347 0               
sub65            rain             3Y1082           647.613096645 77.5273900836 25.4482434884 1.59201170142 102.981446267 0               
sub66            rain             5Y66             857.169854629 78.8619051458 29.2774632547 4.04144110577 124.270176977 0               
sub67            rain             2Y1320           1797.87311404 60.3205475349 42.401333871 2.85648306482 199.565640147 0               
sub68            rain             3Y1075           574.357402003 93.8468728825 23.9657547764 1.53258263844 105.851103908 0               
sub69            rain             2Y968            1209.17724718 70.9281823397 34.7732260105 2.94516911561 157.411305369 0               
sub70            rain             5Y1016           1252.36214747 81.5063304964 35.3887291022 3.30550988909 187.870017712 0               
sub71            rain             5Y69             872.425267701 96.1746525048 29.5368459335 4.28600867147 124.679767689 0               
sub72            rain             7Y9              439.023478217 18.598580712 20.9528871093 12.403241235 94.658952739 0               
sub73            rain             5Y1070           533.389591266 38.0996355654 23.0952287554 2.20356631793 161.719321784 0               
sub74            rain             7Y69             736.061737507 68.2384703507 27.130457746 0.762247443461 127.704783853 0               
sub75            rain             5Y30             4915.07984349 10.0919852601 70.1076304227 1.83136593587 391.911126861 0               
sub76            rain             3Y1080           1001.71849498 3.6331188622 31.6499367295 3.99407058594 144.038109 0               
sub77            rain             2Y952            1396.28213817 81.3177079056 37.3668588213 4.85143966812 149.569135979 0               
sub78            rain             5Y153            1830.18183912 26.9362044977 42.7806245761 1.290853659 187.749988472 0               
sub79            rain             7Y11             221.11575843 30.8173500274 14.8699616149 14.0704694463 59.3568579747 0               
sub80            rain             2Y1331           1726.52465399 67.7076726937 41.5514699378 2.74396328349 195.312838184 0               
sub81            rain             2Y950            991.050967938 80.9346220969 31.4809619919 3.84675271764 131.737913291 0               
sub82            rain             5Y63             3738.55467083 88.2555260176 61.1437214343 2.93025303517 292.588106717 0               
sub83            rain             5Y1069           516.773931544 92.4678639862 22.7326622186 3.7726312591 158.971420873 0               
sub84            rain             3Y7              2479.72292996 58.8455271481 49.7968164641 1.34174526311 211.70543146 0               
sub85            rain             sub74            390.855912945 92.0978664432 19.7700761998 2.99125880801 87.8651500256 0               
sub86            rain             7Y181            1045.94206042 67.0929222472 32.3410275103 2.07496612555 134.774562687 0               
sub87            rain             7Y13             173.499858999 22.3431371609 13.17193452 18.2488427729 52.929129207 0               
sub88            rain             2Y1130           1531.96849378 43.189106264 39.1403691063 2.16466726088 172.344477468 0               
sub89            rain             7Y89             111.423907595 55.493631925 10.5557523462 18.8201079181 42.4240031167 0               
sub90            rain             3Y4              1455.92331594 57.4478601617 38.1565632092 0.880479185095 154.005463123 0               
sub91            rain             7Y90             114.065876834 59.373014772 10.6801627719 21.1793059655 42.9877806061 0               
sub92            rain             5Y1073           927.398014967 83.2708628643 30.4532102572 2.05110449427 206.802926092 0               
sub93            rain             5Y81             589.503103076 88.6304521478 24.2796849872 3.39297519139 98.9251462679 0               
sub94            rain             3Y1              851.976340983 76.7797018605 29.1886337636 0.915274811587 144.967255915 0               
sub95            rain             7Y92             137.337196867 57.1738134499 11.7190953946 24.4324886655 49.385151006 0               
sub96            rain             7Y93             46.3715825469 55.5409170675 6.80966831402 27.2877259915 29.5601236542 0               
sub97            rain             3Y72             664.390472913 75.6982095101 25.7757729838 0.969633036105 107.280706549 0               
sub98            rain             5Y157            1274.24476831 43.6692951888 35.6965652173 4.58077080185 187.118145323 0               
sub99            rain             5Y84             342.02166571 90.4334862389 18.4938277733 3.03693489452 75.2604772919 0               
sub100           rain             5Y1074           276.648277842 58.38244342 16.6327471526 17.2249508224 70.6800344162 0               
sub101           rain             2Y742            1298.60170746 61.6799319593 36.0361167089 2.81011897299 164.380077976 0               
sub102           rain             2Y1334           2676.13640884 90.3963311735 51.7313870763 1.81960149403 311.767529058 0               
sub103           rain             2Y1115           1310.77733778 89.0623865371 36.2046590618 3.43057340421 182.735257148 0               
sub104           rain             5Y229            5300.74722324 0        72.8062306622 2.76463570832 342.123660201 0               
sub105           rain             3Y76             1300.43459358 54.5325639293 36.0615389796 1.661449907 166.72891311 0               
sub106           rain             5Y1109           477.16413943 39.9914058968 21.8440870587 12.5060655058 92.0130586124 0               
sub107           rain             2Y1126           1527.26746175 81.7190405118 39.0802694687 5.82085509388 162.127277478 0               
sub108           rain             3Y68             1639.14201165 78.9612590794 40.4863188207 0.952785041014 169.351667845 0               
sub109           rain             5Y73             1532.36417434 98.7864521043 39.145423415 2.34908907156 204.487154953 0               
sub110           rain             3Y81             1129.24036542 31.7428756916 33.6041718455 1.99389718629 144.10695822 0               
sub111           rain             3Y380            6822.01009529 69.367662103 82.5954605005 2.58887172323 375.792046933 0               
sub112           rain             2Y739            3784.23164631 27.5833136346 61.5161088359 2.64199485422 251.259605745 0               
sub113           rain             2Y1122           1072.4534734 84.2807689819 32.7483354295 6.41877287819 173.141749793 0               